2
Lattice="21.140929554306066 0.0 0.0 0.0 20.0 0.0 0.0 0.0 20.0" Properties=species:S:1:pos:R:3:forces:R:3 charge=0 spin=1 energy=-4089.7792232020583 free_energy=-4089.7792232020583 stress="-2.674633651622571e-05 2.855947357548041e-18 -2.1419593807876886e-18 2.855947357548041e-18 0.0 0.0 -2.1419593807876886e-18 0.0 0.0" pbc="T T T"
O       11.16760880      10.00000000      10.00000000       0.18938230      -0.00000000       0.00000000
O        9.97332075      10.00000000      10.00000000      -0.18938230       0.00000000      -0.00000000
